*Heading
** Job name: fea-lab-problem Model name: fea-lab-problem
** Generated by: Abaqus/CAE 2023
*Preprint, echo=NO, model=NO, history=NO, contact=NO
**
** PARTS
**
*Part, name=Part-1
*End Part
**  
**
** ASSEMBLY
**
*Assembly, name=Assembly
**  
*Instance, name=Part-1-1, part=Part-1
*Node
      1,           0.,           0.
      2, 0.00999999978,           0.
      3, 0.0199999996,           0.
      4, 0.0299999993,           0.
      5, 0.0399999991,           0.
      6, 0.0500000007,           0.
      7, 0.0599999987,           0.
      8, 0.0700000003,           0.
      9, 0.0799999982,           0.
     10, 0.0900000036,           0.
     11,  0.100000001,           0.
     12,  0.109999999,           0.
     13,  0.119999997,           0.
     14,  0.129999995,           0.
     15,  0.140000001,           0.
     16,  0.150000006,           0.
     17,  0.159999996,           0.
     18,  0.170000002,           0.
     19,  0.180000007,           0.
     20,  0.189999998,           0.
** ... 1251 like lines cut
*Element, type=DC2D4
   1,    1,    2,   43,   42
   2,    2,    3,   44,   43
   3,    3,    4,   45,   44
   4,    4,    5,   46,   45
   5,    5,    6,   47,   46
   6,    6,    7,   48,   47
   7,    7,    8,   49,   48
   8,    8,    9,   50,   49
   9,    9,   10,   51,   50
  10,   10,   11,   52,   51
  11,   11,   12,   53,   52
  12,   12,   13,   54,   53
  13,   13,   14,   55,   54
  14,   14,   15,   56,   55
  15,   15,   16,   57,   56
  16,   16,   17,   58,   57
  17,   17,   18,   59,   58
  18,   18,   19,   60,   59
  19,   19,   20,   61,   60
  20,   20,   21,   62,   61
** ... 1180 like lines cut
*Nset, nset=Set-1, generate
    1,  1271,     1
*Elset, elset=Set-1, generate
    1,  1200,     1
** Section: Section-1
*Solid Section, elset=Set-1, material=Mat1
,
*End Instance
**  
*Nset, nset=Set-1, instance=Part-1-1, generate
 1231,  1271,     1
*Elset, elset=Set-1, instance=Part-1-1, generate
 1161,  1200,     1
*Elset, elset=_Surf-1_S2, internal, instance=Part-1-1, generate
   40,  1200,    40
*Surface, type=ELEMENT, name=Surf-1
_Surf-1_S2, S2
*Elset, elset=_Surf-2_S4, internal, instance=Part-1-1, generate
    1,  1161,    40
*Surface, type=ELEMENT, name=Surf-2
_Surf-2_S4, S4
*End Assembly
** 
** MATERIALS
** 
*Material, name=Mat1
*Conductivity
15.,
*Density
2000.,
*Specific Heat
150.,
** ----------------------------------------------------------------
** 
** STEP: Step-1
** 
*Step, name=Step-1, nlgeom=NO
*Heat Transfer, steady state, deltmx=0.
1., 1., 1e-05, 1., 
** 
** BOUNDARY CONDITIONS
** 
** Name: BC-1 Type: Temperature
*Boundary
Set-1, 11, 11, 140.
** 
** LOADS
** 
** Name: Load-1   Type: Surface heat flux
*Dsflux
Surf-2, S, 3000.
** 
** INTERACTIONS
** 
** Interaction: Right edge
*Sfilm
Surf-1, F, 20., 5.
** 
** OUTPUT REQUESTS
** 
*Restart, write, frequency=0
** 
** FIELD OUTPUT: F-Output-1
** 
*Output, field, variable=PRESELECT
*Output, history, frequency=0
*End Step
