*Heading
** Job name: fea-lab-with-hole Model name: fea-lab-with-hole
** Generated by: Abaqus/CAE 2023
*Preprint, echo=NO, model=NO, history=NO, contact=NO
**
** PARTS
**
*Part, name=Part-1
*End Part
**  
**
** ASSEMBLY
**
*Assembly, name=Assembly
**  
*Instance, name=Part-1-1, part=Part-1
*Node
      1,  0.200000003,  0.166199997
      2,  0.200000003,  0.300000012
      3,           0.,  0.300000012
      4,           0.,  0.166199997
      5,  0.400000006,  0.166199997
      6,  0.400000006,  0.300000012
      7,  0.200000003,  0.100000001
      8,           0.,           0.
      9,  0.100000001,           0.
     10,  0.300000012,           0.
     11,  0.400000006,           0.
     12,  0.200000003,  0.176492304
     13,  0.200000003,   0.18678461
     14,  0.200000003,  0.197076917
     15,  0.200000003,  0.207369238
     16,  0.200000003,  0.217661545
     17,  0.200000003,  0.227953851
     18,  0.200000003,  0.238246158
     19,  0.200000003,  0.248538464
     20,  0.200000003,  0.258830756
** ... 1143 like lines cut
*Element, type=DC2D4
  1,   1,  12, 219,  73
  2,  12,  13, 220, 219
  3,  13,  14, 221, 220
  4,  14,  15, 222, 221
  5,  15,  16, 223, 222
  6,  16,  17, 224, 223
  7,  17,  18, 225, 224
  8,  18,  19, 226, 225
  9,  19,  20, 227, 226
 10,  20,  21, 228, 227
 11,  21,  22, 229, 228
 12,  22,  23, 230, 229
 13,  23,   2,  24, 230
 14,  73, 219, 231,  72
 15, 219, 220, 232, 231
 16, 220, 221, 233, 232
 17, 221, 222, 234, 233
 18, 222, 223, 235, 234
 19, 223, 224, 236, 235
 20, 224, 225, 237, 236
** ... 1063 like lines cut
*Nset, nset=Set-1, generate
    1,  1163,     1
*Elset, elset=Set-1, generate
    1,  1083,     1
** Section: Section-1
*Solid Section, elset=Set-1, material=Mat1
,
*End Instance
**  
*Nset, nset=Set-1, instance=Part-1-1
   2,   3,   6,  24,  25,  26,  27,  28,  29,  30,  31,  32,  33,  34,  35,  36
  37,  38,  39,  40,  41,  42, 105, 106, 107, 108, 109, 110, 111, 112, 113, 114
 115, 116, 117, 118, 119, 120, 121, 122, 123
*Elset, elset=Set-1, instance=Part-1-1
  13,  26,  39,  52,  65,  78,  91, 104, 117, 130, 143, 156, 169, 182, 195, 208
 221, 234, 247, 260, 261, 274, 287, 300, 313, 326, 339, 352, 365, 378, 391, 404
 417, 430, 443, 456, 469, 482, 495, 508
*Elset, elset=_Surf-1_S3, internal, instance=Part-1-1, generate
 508,  520,    1
*Elset, elset=_Surf-1_S2, internal, instance=Part-1-1, generate
 923,  993,   10
*Elset, elset=_Surf-1_S1, internal, instance=Part-1-1, generate
  994,  1002,     1
*Surface, type=ELEMENT, name=Surf-1
_Surf-1_S3, S3
_Surf-1_S2, S2
_Surf-1_S1, S1
*Elset, elset=_Surf-2_S3, internal, instance=Part-1-1, generate
 248,  260,    1
*Elset, elset=_Surf-2_S2, internal, instance=Part-1-1, generate
 621,  709,   11
*Elset, elset=_Surf-2_S1, internal, instance=Part-1-1, generate
 710,  717,    1
*Surface, type=ELEMENT, name=Surf-2
_Surf-2_S3, S3
_Surf-2_S2, S2
_Surf-2_S1, S1
*End Assembly
** 
** MATERIALS
** 
*Material, name=Mat1
*Conductivity
15.,
*Density
2000.,
*Specific Heat
150.,
** ----------------------------------------------------------------
** 
** STEP: Step-1
** 
*Step, name=Step-1, nlgeom=NO
*Heat Transfer, steady state, deltmx=0.
1., 1., 1e-05, 1., 
** 
** BOUNDARY CONDITIONS
** 
** Name: BC-1 Type: Temperature
*Boundary
Set-1, 11, 11, 140.
** 
** LOADS
** 
** Name: Load-1   Type: Surface heat flux
*Dsflux
Surf-2, S, 3000.
** 
** INTERACTIONS
** 
** Interaction: Right edge
*Sfilm
Surf-1, F, 20., 5.
** 
** OUTPUT REQUESTS
** 
*Restart, write, frequency=0
** 
** FIELD OUTPUT: F-Output-1
** 
*Output, field, variable=PRESELECT
*Output, history, frequency=0
*End Step
